examples/data/enwl/lv-network-models/network_16/Feeder_4/Loads.dss
New Load.LOAD1 Phases=1 Bus1=133.1 kV=0.23 kW=1 PF=0.95
New Load.LOAD2 Phases=1 Bus1=138.2 kV=0.23 kW=1 PF=0.95
New Load.LOAD3 Phases=1 Bus1=165.2 kV=0.23 kW=1 PF=0.95
New Load.LOAD4 Phases=1 Bus1=172.3 kV=0.23 kW=1 PF=0.95
New Load.LOAD5 Phases=1 Bus1=184.1 kV=0.23 kW=1 PF=0.95
New Load.LOAD6 Phases=1 Bus1=212.3 kV=0.23 kW=1 PF=0.95
New Load.LOAD7 Phases=1 Bus1=231.1 kV=0.23 kW=1 PF=0.95
New Load.LOAD8 Phases=1 Bus1=257.1 kV=0.23 kW=1 PF=0.95
New Load.LOAD9 Phases=1 Bus1=293.2 kV=0.23 kW=1 PF=0.95
New Load.LOAD10 Phases=1 Bus1=303.3 kV=0.23 kW=1 PF=0.95
New Load.LOAD11 Phases=1 Bus1=327.3 kV=0.23 kW=1 PF=0.95
New Load.LOAD12 Phases=1 Bus1=449.3 kV=0.23 kW=1 PF=0.95
New Load.LOAD13 Phases=1 Bus1=457.3 kV=0.23 kW=1 PF=0.95
New Load.LOAD14 Phases=1 Bus1=472.1 kV=0.23 kW=1 PF=0.95
New Load.LOAD15 Phases=1 Bus1=525.3 kV=0.23 kW=1 PF=0.95
New Load.LOAD16 Phases=1 Bus1=535.3 kV=0.23 kW=1 PF=0.95
New Load.LOAD17 Phases=1 Bus1=551.1 kV=0.23 kW=1 PF=0.95
New Load.LOAD18 Phases=1 Bus1=564.2 kV=0.23 kW=1 PF=0.95
New Load.LOAD19 Phases=1 Bus1=631.3 kV=0.23 kW=1 PF=0.95
New Load.LOAD20 Phases=1 Bus1=671.1 kV=0.23 kW=1 PF=0.95
New Load.LOAD21 Phases=1 Bus1=730.1 kV=0.23 kW=1 PF=0.95
New Load.LOAD22 Phases=1 Bus1=747.2 kV=0.23 kW=1 PF=0.95
New Load.LOAD23 Phases=1 Bus1=754.1 kV=0.23 kW=1 PF=0.95
New Load.LOAD24 Phases=1 Bus1=762.3 kV=0.23 kW=1 PF=0.95
New Load.LOAD25 Phases=1 Bus1=786.3 kV=0.23 kW=1 PF=0.95
New Load.LOAD26 Phases=1 Bus1=787.3 kV=0.23 kW=1 PF=0.95
New Load.LOAD27 Phases=1 Bus1=814.3 kV=0.23 kW=1 PF=0.95
New Load.LOAD28 Phases=1 Bus1=815.3 kV=0.23 kW=1 PF=0.95
New Load.LOAD29 Phases=1 Bus1=848.1 kV=0.23 kW=1 PF=0.95
New Load.LOAD30 Phases=1 Bus1=849.2 kV=0.23 kW=1 PF=0.95
New Load.LOAD31 Phases=1 Bus1=850.2 kV=0.23 kW=1 PF=0.95
New Load.LOAD32 Phases=1 Bus1=879.1 kV=0.23 kW=1 PF=0.95
New Load.LOAD33 Phases=1 Bus1=891.2 kV=0.23 kW=1 PF=0.95
New Load.LOAD34 Phases=1 Bus1=957.1 kV=0.23 kW=1 PF=0.95
New Load.LOAD35 Phases=1 Bus1=958.2 kV=0.23 kW=1 PF=0.95
New Load.LOAD36 Phases=1 Bus1=998.3 kV=0.23 kW=1 PF=0.95
New Load.LOAD37 Phases=1 Bus1=1027.2 kV=0.23 kW=1 PF=0.95
New Load.LOAD38 Phases=1 Bus1=1069.3 kV=0.23 kW=1 PF=0.95
New Load.LOAD39 Phases=1 Bus1=1090.3 kV=0.23 kW=1 PF=0.95
New Load.LOAD40 Phases=1 Bus1=1100.3 kV=0.23 kW=1 PF=0.95
New Load.LOAD41 Phases=1 Bus1=1102.3 kV=0.23 kW=1 PF=0.95
New Load.LOAD42 Phases=1 Bus1=1110.2 kV=0.23 kW=1 PF=0.95
New Load.LOAD43 Phases=1 Bus1=1130.3 kV=0.23 kW=1 PF=0.95
New Load.LOAD44 Phases=1 Bus1=1186.3 kV=0.23 kW=1 PF=0.95
New Load.LOAD45 Phases=1 Bus1=1194.2 kV=0.23 kW=1 PF=0.95
New Load.LOAD46 Phases=1 Bus1=1199.2 kV=0.23 kW=1 PF=0.95
New Load.LOAD47 Phases=1 Bus1=1251.2 kV=0.23 kW=1 PF=0.95
New Load.LOAD48 Phases=1 Bus1=1295.1 kV=0.23 kW=1 PF=0.95
New Load.LOAD49 Phases=1 Bus1=1302.3 kV=0.23 kW=1 PF=0.95
New Load.LOAD50 Phases=1 Bus1=1304.1 kV=0.23 kW=1 PF=0.95
New Load.LOAD51 Phases=1 Bus1=1337.1 kV=0.23 kW=1 PF=0.95
New Load.LOAD52 Phases=1 Bus1=1342.2 kV=0.23 kW=1 PF=0.95
New Load.LOAD53 Phases=1 Bus1=1374.2 kV=0.23 kW=1 PF=0.95
New Load.LOAD54 Phases=1 Bus1=1390.3 kV=0.23 kW=1 PF=0.95
New Load.LOAD55 Phases=1 Bus1=1393.1 kV=0.23 kW=1 PF=0.95
New Load.LOAD56 Phases=1 Bus1=1427.2 kV=0.23 kW=1 PF=0.95
New Load.LOAD57 Phases=1 Bus1=1449.1 kV=0.23 kW=1 PF=0.95
New Load.LOAD58 Phases=1 Bus1=1467.1 kV=0.23 kW=1 PF=0.95